DEBUT();

MA=DEFI_MATERIAU(ELAS=_F(E=210000.0,
                         NU=0.3,),);

MAIL=LIRE_MAILLAGE(FORMAT='MED',);



MODE=AFFE_MODELE(MAILLAGE=MAIL,
                 AFFE=_F(TOUT='OUI',
                         PHENOMENE='MECANIQUE',
                         MODELISATION='3D',),);

MATE=AFFE_MATERIAU(MAILLAGE=MAIL,
                   AFFE=_F(TOUT='OUI',
                           MATER=MA,),);

CHAR=AFFE_CHAR_MECA(MODELE=MODE,
                    DDL_IMPO=(
                        _F(GROUP_MA='fix',
                           DX=0.0,
                           DY=0.0,
                           DZ=0.0,),
                        ),
                    FORCE_ARETE=(
                        _F(GROUP_MA='loadE',
                           FX=0.0,
                           FY=0.0,
                           FZ=-200.0,),
                        ),
                    );

RESU=MECA_STATIQUE(MODELE=MODE,
                   CHAM_MATER=MATE,
                   EXCIT=_F(CHARGE=CHAR,),);

RESU=CALC_CHAMP(reuse=RESU,
               RESULTAT=RESU,
               CONTRAINTE=('SIGM_ELNO','SIGM_NOEU'),
               CRITERES=('SIEQ_ELNO','SIEQ_NOEU',),);

IMPR_RESU(FORMAT='MED',
          UNITE=80,
          RESU=_F(RESULTAT=RESU,
                  NOM_CHAM=('SIGM_NOEU','SIEQ_NOEU','DEPL',),),);

FIN();
